tests/fuzzer/corpus_json/21_random_029.json
{
  "version": "1.0",
  "type": "input",
  "is_batch": false,
  "attributes": {},
  "data": {
    "node": [
      {
        "id": 0,
        "u_rated": 230.0
      },
      {
        "id": 1,
        "u_rated": 230.0
      },
      {
        "id": 2,
        "u_rated": 230.0
      },
      {
        "id": 3,
        "u_rated": 230.0
      },
      {
        "id": 4,
        "u_rated": 230.0
      },
      {
        "id": 5,
        "u_rated": 230.0
      },
      {
        "id": 6,
        "u_rated": 230.0
      },
      {
        "id": 7,
        "u_rated": 230.0
      },
      {
        "id": 8,
        "u_rated": 230.0
      },
      {
        "id": 9,
        "u_rated": 230.0
      }
    ],
    "source": [
      {
        "id": 10,
        "node": 0,
        "status": 1,
        "u_ref": 1.0689702177133256,
        "u_ref_angle": 0.0,
        "sk": 345897240.15572107,
        "rx_ratio": 0.1442987177026716,
        "z01_ratio": 1.0
      }
    ],
    "line": [
      {
        "id": 11,
        "from_node": 0,
        "to_node": 1,
        "from_status": 1,
        "to_status": 1,
        "r1": 1.7190713954312908,
        "x1": 2.077469640174961,
        "c1": 9.738587963010672e-07,
        "tan1": 0.0,
        "r0": 0.3,
        "x0": 0.3,
        "c0": 1e-09,
        "tan0": 0.0,
        "i_n": 112.69536218752054
      },
      {
        "id": 12,
        "from_node": 1,
        "to_node": 2,
        "from_status": 1,
        "to_status": 1,
        "r1": 2.223516428924986,
        "x1": 1.1240378321362372,
        "c1": 3.4956656460106914e-07,
        "tan1": 0.0,
        "r0": 0.3,
        "x0": 0.3,
        "c0": 1e-09,
        "tan0": 0.0,
        "i_n": 998.7527094253234
      },
      {
        "id": 13,
        "from_node": 2,
        "to_node": 3,
        "from_status": 1,
        "to_status": 1,
        "r1": 1.6464948250895088,
        "x1": 3.038888929123738,
        "c1": 4.1961686936080477e-07,
        "tan1": 0.0,
        "r0": 0.3,
        "x0": 0.3,
        "c0": 1e-09,
        "tan0": 0.0,
        "i_n": 733.149083162459
      },
      {
        "id": 14,
        "from_node": 3,
        "to_node": 4,
        "from_status": 1,
        "to_status": 1,
        "r1": 2.2360375887560884,
        "x1": 0.8521789394113244,
        "c1": 4.339126928458493e-07,
        "tan1": 0.0,
        "r0": 0.3,
        "x0": 0.3,
        "c0": 1e-09,
        "tan0": 0.0,
        "i_n": 413.97952234395524
      },
      {
        "id": 15,
        "from_node": 4,
        "to_node": 5,
        "from_status": 1,
        "to_status": 1,
        "r1": 3.963587942860488,
        "x1": 2.8130322517268,
        "c1": 1.9640127974473076e-07,
        "tan1": 0.0,
        "r0": 0.3,
        "x0": 0.3,
        "c0": 1e-09,
        "tan0": 0.0,
        "i_n": 677.1067602053752
      },
      {
        "id": 16,
        "from_node": 5,
        "to_node": 6,
        "from_status": 1,
        "to_status": 1,
        "r1": 1.4918770744754062,
        "x1": 2.559454059246462,
        "c1": 2.198562608566158e-07,
        "tan1": 0.0,
        "r0": 0.3,
        "x0": 0.3,
        "c0": 1e-09,
        "tan0": 0.0,
        "i_n": 416.6469491201631
      },
      {
        "id": 17,
        "from_node": 6,
        "to_node": 7,
        "from_status": 1,
        "to_status": 1,
        "r1": 3.930565695185085,
        "x1": 2.578519141066063,
        "c1": 7.523228772512508e-07,
        "tan1": 0.0,
        "r0": 0.3,
        "x0": 0.3,
        "c0": 1e-09,
        "tan0": 0.0,
        "i_n": 759.1721486770637
      },
      {
        "id": 18,
        "from_node": 7,
        "to_node": 8,
        "from_status": 1,
        "to_status": 1,
        "r1": 2.9354673142718584,
        "x1": 3.225801679171682,
        "c1": 3.9728674904228456e-07,
        "tan1": 0.0,
        "r0": 0.3,
        "x0": 0.3,
        "c0": 1e-09,
        "tan0": 0.0,
        "i_n": 621.7724902924887
      },
      {
        "id": 19,
        "from_node": 8,
        "to_node": 9,
        "from_status": 1,
        "to_status": 1,
        "r1": 3.886192064556159,
        "x1": 0.4959183831163244,
        "c1": 9.37629885149392e-07,
        "tan1": 0.0,
        "r0": 0.3,
        "x0": 0.3,
        "c0": 1e-09,
        "tan0": 0.0,
        "i_n": 373.56506577793186
      }
    ],
    "sym_load": [
      {
        "id": 20,
        "node": 1,
        "status": 1,
        "type": 0,
        "p_specified": 37713.5132859289,
        "q_specified": 6039.072881529615
      },
      {
        "id": 21,
        "node": 2,
        "status": 1,
        "type": 0,
        "p_specified": -16982.283256675742,
        "q_specified": 3106.9300213459464
      },
      {
        "id": 22,
        "node": 3,
        "status": 1,
        "type": 2,
        "p_specified": 31874.975794099475,
        "q_specified": -3579.5905075251785
      },
      {
        "id": 23,
        "node": 9,
        "status": 1,
        "type": 1,
        "p_specified": -96956.92066504486,
        "q_specified": 5100.90113012142
      }
    ]
  }
}